*Heading
** Job name: Job-MultiElement Model name: Model-1
** Generated by: Abaqus/CAE 2019.HF1
*Preprint, echo=NO, model=NO, history=NO, contact=NO
**
** PARTS
**
*Part, name=Part-1
*End Part
**  
**
** ASSEMBLY
**
*Assembly, name=Assembly
**  
*Instance, name=Part-1-1, part=Part-1
*Node
      1,          7.5,         -2.5,           3.
      2,           7.,         -2.5,           3.
      3,          6.5,         -2.5,           3.
      4,           6.,         -2.5,           3.
      5,          5.5,         -2.5,           3.
      6,           5.,         -2.5,           3.
      7,          4.5,         -2.5,           3.
      8,           4.,         -2.5,           3.
      9,          3.5,         -2.5,           3.
     10,           3.,         -2.5,           3.
     11,          2.5,         -2.5,           3.
     12,           2.,         -2.5,           3.
     13,          1.5,         -2.5,           3.
     14,           1.,         -2.5,           3.
     15,          0.5,         -2.5,           3.
     16,           0.,         -2.5,           3.
     17,         -0.5,         -2.5,           3.
     18,          -1.,         -2.5,           3.
     19,         -1.5,         -2.5,           3.
     20,          -2.,         -2.5,           3.
** ... 2367 like lines cut
*Element, type=C3D8
   1,  218,  219,  250,  249,    1,    2,   33,   32
   2,  219,  220,  251,  250,    2,    3,   34,   33
   3,  220,  221,  252,  251,    3,    4,   35,   34
   4,  221,  222,  253,  252,    4,    5,   36,   35
   5,  222,  223,  254,  253,    5,    6,   37,   36
   6,  223,  224,  255,  254,    6,    7,   38,   37
   7,  224,  225,  256,  255,    7,    8,   39,   38
   8,  225,  226,  257,  256,    8,    9,   40,   39
   9,  226,  227,  258,  257,    9,   10,   41,   40
  10,  227,  228,  259,  258,   10,   11,   42,   41
  11,  228,  229,  260,  259,   11,   12,   43,   42
  12,  229,  230,  261,  260,   12,   13,   44,   43
  13,  230,  231,  262,  261,   13,   14,   45,   44
  14,  231,  232,  263,  262,   14,   15,   46,   45
  15,  232,  233,  264,  263,   15,   16,   47,   46
  16,  233,  234,  265,  264,   16,   17,   48,   47
  17,  234,  235,  266,  265,   17,   18,   49,   48
  18,  235,  236,  267,  266,   18,   19,   50,   49
  19,  236,  237,  268,  267,   19,   20,   51,   50
  20,  237,  238,  269,  268,   20,   21,   52,   51
** ... 1780 like lines cut
*Nset, nset=Set-1, generate
    1,  2387,     1
*Elset, elset=Set-1, generate
    1,  1800,     1
*Orientation, name=Ori-DiscField-1, system=RECTANGULAR
DiscField-1
1, 0.
** Section: Section-1
*Solid Section, elset=Set-1, orientation=Ori-DiscField-1, material=Material-1
,
*Distribution, name=DiscField-1, location=ELEMENT, Table=DiscField-1_Table
,           1.,           0.,           0.,           0.,           1.,           0.
1, 	0.500000, 	0.866025, 	0.000000, 	-0.866025, 	0.500000, 	0.000000
2, 	0.500000, 	0.866025, 	0.000000, 	-0.866025, 	0.500000, 	0.000000
3, 	0.500000, 	0.866025, 	0.000000, 	-0.866025, 	0.500000, 	0.000000
4, 	0.500000, 	0.866025, 	0.000000, 	-0.866025, 	0.500000, 	0.000000
5, 	0.500000, 	0.866025, 	0.000000, 	-0.866025, 	0.500000, 	0.000000
6, 	0.500000, 	0.866025, 	0.000000, 	-0.866025, 	0.500000, 	0.000000
7, 	0.500000, 	0.866025, 	0.000000, 	-0.866025, 	0.500000, 	0.000000
8, 	0.500000, 	0.866025, 	0.000000, 	-0.866025, 	0.500000, 	0.000000
9, 	0.500000, 	0.866025, 	0.000000, 	-0.866025, 	0.500000, 	0.000000
10, 	0.500000, 	0.866025, 	0.000000, 	-0.866025, 	0.500000, 	0.000000
11, 	0.500000, 	0.866025, 	0.000000, 	-0.866025, 	0.500000, 	0.000000
12, 	0.500000, 	0.866025, 	0.000000, 	-0.866025, 	0.500000, 	0.000000
13, 	0.500000, 	0.866025, 	0.000000, 	-0.866025, 	0.500000, 	0.000000
14, 	0.500000, 	0.866025, 	0.000000, 	-0.866025, 	0.500000, 	0.000000
15, 	0.500000, 	0.866025, 	0.000000, 	-0.866025, 	0.500000, 	0.000000
16, 	0.500000, 	0.866025, 	0.000000, 	-0.866025, 	0.500000, 	0.000000
17, 	0.500000, 	0.866025, 	0.000000, 	-0.866025, 	0.500000, 	0.000000
18, 	0.500000, 	0.866025, 	0.000000, 	-0.866025, 	0.500000, 	0.000000
19, 	0.500000, 	0.866025, 	0.000000, 	-0.866025, 	0.500000, 	0.000000
20, 	0.500000, 	0.866025, 	0.000000, 	-0.866025, 	0.500000, 	0.000000
** ... 1780 like lines cut
*End Instance
**  
*Nset, nset=Set-2, instance=Part-1-1, generate
   31,  2387,    31
*Elset, elset=Set-2, instance=Part-1-1, generate
   30,  1800,    30
*Nset, nset=Set-3, instance=Part-1-1
    1,    2,    3,    4,    5,    6,    7,    8,    9,   10,   11,   12,   13,   14,   15,   16
   17,   18,   19,   20,   21,   22,   23,   24,   25,   26,   27,   28,   29,   30,   31,  218
  219,  220,  221,  222,  223,  224,  225,  226,  227,  228,  229,  230,  231,  232,  233,  234
  235,  236,  237,  238,  239,  240,  241,  242,  243,  244,  245,  246,  247,  248,  435,  436
  437,  438,  439,  440,  441,  442,  443,  444,  445,  446,  447,  448,  449,  450,  451,  452
  453,  454,  455,  456,  457,  458,  459,  460,  461,  462,  463,  464,  465,  652,  653,  654
  655,  656,  657,  658,  659,  660,  661,  662,  663,  664,  665,  666,  667,  668,  669,  670
  671,  672,  673,  674,  675,  676,  677,  678,  679,  680,  681,  682,  869,  870,  871,  872
  873,  874,  875,  876,  877,  878,  879,  880,  881,  882,  883,  884,  885,  886,  887,  888
  889,  890,  891,  892,  893,  894,  895,  896,  897,  898,  899, 1086, 1087, 1088, 1089, 1090
 1091, 1092, 1093, 1094, 1095, 1096, 1097, 1098, 1099, 1100, 1101, 1102, 1103, 1104, 1105, 1106
 1107, 1108, 1109, 1110, 1111, 1112, 1113, 1114, 1115, 1116, 1303, 1304, 1305, 1306, 1307, 1308
 1309, 1310, 1311, 1312, 1313, 1314, 1315, 1316, 1317, 1318, 1319, 1320, 1321, 1322, 1323, 1324
 1325, 1326, 1327, 1328, 1329, 1330, 1331, 1332, 1333, 1520, 1521, 1522, 1523, 1524, 1525, 1526
 1527, 1528, 1529, 1530, 1531, 1532, 1533, 1534, 1535, 1536, 1537, 1538, 1539, 1540, 1541, 1542
 1543, 1544, 1545, 1546, 1547, 1548, 1549, 1550, 1737, 1738, 1739, 1740, 1741, 1742, 1743, 1744
 1745, 1746, 1747, 1748, 1749, 1750, 1751, 1752, 1753, 1754, 1755, 1756, 1757, 1758, 1759, 1760
 1761, 1762, 1763, 1764, 1765, 1766, 1767, 1954, 1955, 1956, 1957, 1958, 1959, 1960, 1961, 1962
 1963, 1964, 1965, 1966, 1967, 1968, 1969, 1970, 1971, 1972, 1973, 1974, 1975, 1976, 1977, 1978
 1979, 1980, 1981, 1982, 1983, 1984, 2171, 2172, 2173, 2174, 2175, 2176, 2177, 2178, 2179, 2180
 2181, 2182, 2183, 2184, 2185, 2186, 2187, 2188, 2189, 2190, 2191, 2192, 2193, 2194, 2195, 2196
 2197, 2198, 2199, 2200, 2201
*Elset, elset=Set-3, instance=Part-1-1
    1,    2,    3,    4,    5,    6,    7,    8,    9,   10,   11,   12,   13,   14,   15,   16
   17,   18,   19,   20,   21,   22,   23,   24,   25,   26,   27,   28,   29,   30,  181,  182
  183,  184,  185,  186,  187,  188,  189,  190,  191,  192,  193,  194,  195,  196,  197,  198
  199,  200,  201,  202,  203,  204,  205,  206,  207,  208,  209,  210,  361,  362,  363,  364
  365,  366,  367,  368,  369,  370,  371,  372,  373,  374,  375,  376,  377,  378,  379,  380
  381,  382,  383,  384,  385,  386,  387,  388,  389,  390,  541,  542,  543,  544,  545,  546
  547,  548,  549,  550,  551,  552,  553,  554,  555,  556,  557,  558,  559,  560,  561,  562
  563,  564,  565,  566,  567,  568,  569,  570,  721,  722,  723,  724,  725,  726,  727,  728
  729,  730,  731,  732,  733,  734,  735,  736,  737,  738,  739,  740,  741,  742,  743,  744
  745,  746,  747,  748,  749,  750,  901,  902,  903,  904,  905,  906,  907,  908,  909,  910
  911,  912,  913,  914,  915,  916,  917,  918,  919,  920,  921,  922,  923,  924,  925,  926
  927,  928,  929,  930, 1081, 1082, 1083, 1084, 1085, 1086, 1087, 1088, 1089, 1090, 1091, 1092
 1093, 1094, 1095, 1096, 1097, 1098, 1099, 1100, 1101, 1102, 1103, 1104, 1105, 1106, 1107, 1108
 1109, 1110, 1261, 1262, 1263, 1264, 1265, 1266, 1267, 1268, 1269, 1270, 1271, 1272, 1273, 1274
 1275, 1276, 1277, 1278, 1279, 1280, 1281, 1282, 1283, 1284, 1285, 1286, 1287, 1288, 1289, 1290
 1441, 1442, 1443, 1444, 1445, 1446, 1447, 1448, 1449, 1450, 1451, 1452, 1453, 1454, 1455, 1456
 1457, 1458, 1459, 1460, 1461, 1462, 1463, 1464, 1465, 1466, 1467, 1468, 1469, 1470, 1621, 1622
 1623, 1624, 1625, 1626, 1627, 1628, 1629, 1630, 1631, 1632, 1633, 1634, 1635, 1636, 1637, 1638
 1639, 1640, 1641, 1642, 1643, 1644, 1645, 1646, 1647, 1648, 1649, 1650
*Nset, nset=Set-4, instance=Part-1-1, generate
   1,  217,    1
*Elset, elset=Set-4, instance=Part-1-1, generate
   1,  180,    1
*Nset, nset=Set-5, instance=Part-1-1, generate
    1,  2357,    31
*Elset, elset=Set-5, instance=Part-1-1, generate
    1,  1771,    30
*Elset, elset=Set-mid, instance=Part-1-1
   15,   16,   45,   46,   75,   76,  105,  106,  135,  136,  165,  166,  195,  196,  225,  226
  255,  256,  285,  286,  315,  316,  345,  346,  375,  376,  405,  406,  435,  436,  465,  466
  495,  496,  525,  526,  555,  556,  585,  586,  615,  616,  645,  646,  675,  676,  705,  706
  735,  736,  765,  766,  795,  796,  825,  826,  855,  856,  885,  886,  915,  916,  945,  946
  975,  976, 1005, 1006, 1035, 1036, 1065, 1066, 1095, 1096, 1125, 1126, 1155, 1156, 1185, 1186
 1215, 1216, 1245, 1246, 1275, 1276, 1305, 1306, 1335, 1336, 1365, 1366, 1395, 1396, 1425, 1426
 1455, 1456, 1485, 1486, 1515, 1516, 1545, 1546, 1575, 1576, 1605, 1606, 1635, 1636, 1665, 1666
 1695, 1696, 1725, 1726, 1755, 1756, 1785, 1786
*Nset, nset=Set-y, instance=Part-1-1, generate
 2186,  2372,    31
*Nset, nset=Set-z, instance=Part-1-1, generate
  202,  2372,   217
*Nset, nset=Set-rf, instance=PART-1-1, generate
   31,  2387,    31
*End Assembly
*Amplitude, name=Amp-1
             0.,              0.,              1.,              1.
** 
** MATERIALS
** 
*Material, name=Material-1
*Damping, alpha=160.
*Density
 1.06e-09,
*Depvar
      4,
*User Material, constants=17
 2.2449e-04,       1.6215, 0.0024,       1.8268,     1.,    0.1,  1048.9,    -1.7
 0.00158,   4750.,    4.35,    4.35,    0.10,    -30.,      1.,      0.
      0.,
*Distribution Table, name=DiscField-1_Table
coord3d, coord3d
** ----------------------------------------------------------------
** 
** STEP: Step-1
** 
*Step, name=Step-1, nlgeom=YES
*Dynamic, Explicit
, 1.
*Bulk Viscosity
0.06, 1.2
** 
** BOUNDARY CONDITIONS
** 
** Name: BC-1 Type: Displacement/Rotation
*Boundary
Set-2, 1, 1
** Name: BC-2 Type: Displacement/Rotation
*Boundary
Set-3, 3, 3
** Name: BC-3 Type: Displacement/Rotation
*Boundary
Set-4, 2, 2
** Name: BC-4 Type: Displacement/Rotation
*Boundary, amplitude=Amp-1
Set-5, 1, 1, 3.
** 
** OUTPUT REQUESTS
** 
*Restart, write, number interval=1, time marks=NO
** 
** FIELD OUTPUT: F-Output-1
** 
*Output, field, variable=PRESELECT
** 
** HISTORY OUTPUT: H-Output-2
** 
*Output, history
*Element Output, elset=Set-mid
S11, LE11
** 
** HISTORY OUTPUT: H-Output-3
** 
*Node Output, nset=Set-y
U2, 
** 
** HISTORY OUTPUT: H-Output-4
** 
*Node Output, nset=Set-z
U3, 
** 
** HISTORY OUTPUT: H-Output-1
** 
*Output, history, variable=PRESELECT
*End Step
